!     A 19-species reduced mechanism based on GRI3.0
!
!     by Tianfeng Lu
!     Email: tlu@engr.uconn.edu
!     Webpage: http://spark.engr.uconn.edu/mechs/mechs.htm
!
!     Reference: 
!       Tianfeng Lu and Chung K. Law, 
!       "A criterion based on computational singular perturbation
!       for the identification of quasi steady state species: 
!       A reduced mechanism for methane oxidation with NO chemistry," 
!       Combustion and Flame, Vol.154 No.4 pp.761-774, 2008.
!
ELEMENTS
O H C N  
END
SPECIES
H2    H     O     O2    
OH    H2O   HO2   H2O2  
CH3   CH4   CO    CO2   
CH2O  CH3OH C2H2  C2H4  
C2H6  CH2CO N2    
END
