/*--------------------------------*- C++ -*----------------------------------*\
| =========                 |                                                 |
| \\      /  F ield         | OpenFOAM: The Open Source CFD Toolbox           |
|  \\    /   O peration     | Version:  4.1                                   |
|   \\  /    A nd           | Web:      www.OpenFOAM.org                      |
|    \\/     M anipulation  |                                                 |
\*---------------------------------------------------------------------------*/
FoamFile
{
    version         2;
    format          ascii;
    class           dictionary;
    location        "constant";
    object          chemistryProperties;
}

chemistryType
{
    chemistrySolver QSS;
    chemistryThermo psi;
}

chemistry       on;

initialChemicalTimeStep 1e-07;

EulerImplicitCoeffs
{
    cTauChem        1;
    equilibriumRateLimiter off;
}

odeCoeffs
{
    solver          seulex;
    absTol          1e-12;
    relTol          0.1;
}

QSSCoeffs
{
    solver          seulex;
    absTol          1e-12;
    relTol          0.1;
}


// ************************************************************************* //
